Circuit: * C:\Users\Timo\Documents\projektarbeit\Elektronik\Filter.asc


Date: Sun May 01 13:03:28 2022
Total elapsed time: 0.020 seconds.

tnom = 27
temp = 27
method = trap
totiter = 0
traniter = 0
tranpoints = 0
accept = 0
rejected = 0
matrix size = 3
fillins = 0
solver = Normal

